data_Maghemite

_computing_structure_solution     'FOX http://objcryst.sourceforge.net'

_symmetry_space_group_name_H-M    'P 43 3 2'
_symmetry_space_group_name_Hall   ' P 4acd 2ab 3'

_cell_length_a    100.00000
_cell_length_b    100.00000
_cell_length_c    100.00000
_cell_angle_alpha  90.000
_cell_angle_beta   90.000
_cell_angle_gamma  90.000
_cell_volume      1000000.00
loop_
    _atom_site_label
    _atom_site_type_symbol
    _atom_site_fract_x
    _atom_site_fract_y
    _atom_site_fract_z
    _atom_site_U_iso_or_equiv
    _atom_site_occupancy
    _atom_site_adp_type
    Fe1        Fe        0.992100  0.992100  0.992100 71699060697.355423 1.0000 Uiso
    Fe2        Fe       9102491493663.267578 9102491493662.017578  0.875000 11765627156.729420 1.0000 Uiso
    Fe3        Fe        0.375000  0.125000  0.875000 140749590089.956421 0.3350 Uiso
    O1         O         0.861000  0.861000  0.861000 57123676847.122253 1.0000 Uiso
    O2         O        -26428673385364.964844 8472707794027.669922 -1339434222230.856934 218721795469.010864 1.0000 Uiso

#  Dynamical occupancy corrections found by ObjCryst++:
#  values below 1. (100%) indicate a correction,
#  which means either that the atom is on a special position,
#  or that it is overlapping with another identical atom.
#   Fe1              : 0.3333
#   Fe2              : 0.5000
#   Fe3              : 0.1667
#   O1               : 0.3333
#   O2               : 1.0000
#
